LAMMPS (27 Aug 2016-ICMS)
include "system.in"

# ----------------- Init Section -----------------

include "system.in.init"
  units         metal
  boundary      p p p
  atom_style    atomic
  pair_style    vashishta
  #pair_modify  mix arithmetic  # LEAVE THIS UNSPECIFIED!

# ----------------- Atom Definition Section -----------------

read_data "system.data"
  orthogonal box = (0 0 0) to (327.52 327.52 156.64)
  reading atoms ...
  1015680 atoms

# ----------------- Settings Section -----------------

include "system.in.settings"
  pair_coeff  * *  SiO2.vashishta Si O
Reading potential file SiO2.vashishta with DATE: 2015-10-14
  pair_modify table 16
  pair_modify tabinner 0.1

# ----------------- Run Section -----------------

# The lines above define the system you want to simulate.
# What you do next is up to you.
# Typically a user would minimize and equilibrate
# the system using commands similar to the following:
#  ----   examples   ----
#
#  -- minimize --
# minimize 1.0e-5 1.0e-7 1000 10000
# (Note: Some fixes, for example "shake", interfere with the minimize command,
#        You can use the "unfix" command to disable them before minimization.)
#  -- declare time step for normal MD --
# timestep 1.0
#  -- run at constant pressure (Nose-Hoover)--
# fix   fxnpt all npt temp 300.0 300.0 100.0 iso 1.0 1.0 1000.0 drag 1.0
#  -- ALTERNATELY, run at constant volume (Nose-Hoover) --
# fix   fxnvt all nvt temp 300.0 300.0 500.0 tchain 1
#  -- ALTERNATELY, run at constant volume using Langevin dynamics. --
#  -- (This is good for sparse CG polymers in implicit solvent.)   --
# fix fxLAN all langevin 300.0 300.0 5000 48279
# fix fxNVE all nve  #(<--needed by fix langevin)
#  -- Now, finally run the simulation --
# run   50000
#  ---- (end of examples) ----

velocity	all create 1 277387 mom yes

include "system.prepare"
#region ID style args keyword arg ...

#Define the region of the sphere
region sphereRegion sphere 163.76 163.76 271.2 200
region smallSphereRegion sphere 163.76 163.76 271.2 197 side out
region shellRegion intersect 2 sphereRegion smallSphereRegion
region sphereUpperRegion block 0 INF 0 INF 153 INF
group  sphereGroup region sphereRegion
259916 atoms in group sphereGroup
group  shellGroup region shellRegion
20895 atoms in group shellGroup
group  sphereUpperGroup region sphereUpperRegion
25392 atoms in group sphereUpperGroup

#Define the region of the slab
region slabRegion block 0 INF 0 INF 3.1 53.4
group  slabGroup region slabRegion
359720 atoms in group slabGroup

region slabBottomRegion block 0.0 INF 0.0 INF 0.0 3.0
group  slabBottomGroup region slabBottomRegion
25392 atoms in group slabBottomGroup

#Define the region that is outside the sphere and slab
region bothRegion union 3 sphereRegion slabRegion slabBottomRegion side out

#Delete all atoms exterior to the sphere and slab
delete_atoms region bothRegion
Deleted 370652 atoms, new total = 645028

#Define the surface
region surfaceRegion block 0 INF 0 INF 53.0 53.4
group  surfaceGroup  region surfaceRegion
4232 atoms in group surfaceGroup

#Freeze some volumes

region slabUpperRegion block 0.0 INF 0.0 INF 50.4 53.4
group slabUpperGroup region slabUpperRegion
25392 atoms in group slabUpperGroup

fix upperFreezeID  slabUpperGroup   setforce 0 0 0
fix shellFreezeID  shellGroup       setforce 0 0 0
fix bottomFreezeID slabBottomGroup  setforce 0 0 0
fix topFreezeID    sphereUpperGroup setforce 0 0 0
velocity slabBottomGroup  set 0 0 0
velocity slabUpperGroup   set 0 0 0
velocity shellGroup       set 0 0 0
velocity sphereUpperGroup set 0 0 0

variable N equal 20000
variable T equal 293
variable compressionLength equal 50

neighbor	0.3 bin
neigh_modify	delay 10

thermo		1000
timestep	0.002

fix nvt all nvt temp 293 293 1.0

restart 10000 restartFiles/SiO2_*.restart
dump myDump all atom 10000 dumpFiles/SiO2_*.dump

run 20000
  1 neighbor list requests
  update every 1 steps, delay 10 steps, check yes
Step Temp E_pair E_mol TotEng Press
0    0.8600598   -2064175.6            0   -2064103.8    126196.69
Averages over the last 11 of 21 rows, steps 10000 to 20000:
Temp E_pair E_mol TotEng Press
293.279 -2.16781e+06 0 -2.14335e+06 13552.7
Loop time of 2143.48 on 64 procs for 20000 steps with 645028 atoms

unfix upperFreezeID
unfix shellFreezeID

run 20000
Step Temp E_pair E_mol TotEng Press
20000    294.49673   -2167730.5            0   -2143176.4    13484.108
Averages over the last 11 of 21 rows, steps 30000 to 40000:
Temp E_pair E_mol TotEng Press
292.997 -2.18274e+06 0 -2.15831e+06 9192.02
Loop time of 2099.17 on 64 procs for 20000 steps with 645028 atoms

fix deformID all deform 1 z delta 0 -50 remap x

run 50000
Step Temp E_pair E_mol TotEng Press Volume
40000    292.08161   -2182937.9            0   -2158585.2    9634.0034     16802671
Averages over the last 26 of 51 rows, steps 65000 to 90000:
Temp E_pair E_mol TotEng Press Volume
293.078 -2.13477e+06 0 -2.11033e+06 46022.3 1.27801e+07
Loop time of 5397.56 on 64 procs for 50000 steps with 645028 atoms

unfix deformID

unkID all chunk/atom bin/2d x 0 7.12 y 0 7.12
ERROR: Unknown command: unkID all chunk/atom bin/2d x 0 7.12 y 0 7.12 (../input.cpp:246)
