LAMMPS (17 Nov 2015)
include "system.in"

# ----------------- Init Section -----------------

include "system.in.init"
    units		metal
    boundary	p p p
    atom_style   atomic
    pair_style 	 vashishta
    #pair_modify  mix arithmetic  # LEAVE THIS UNSPECIFIED!

# ----------------- Atom Definition Section -----------------

read_data "system.data"
  orthogonal box = (0 0 0) to (42.72 42.72 42.72)
  reading atoms ...
  5184 atoms

# ----------------- Settings Section -----------------

include "system.in.settings"
    pair_coeff  * *  SiO2.vashishta Si O
Reading potential file SiO2.vashishta with DATE: 2015-10-14
    pair_modify table 16
    pair_modify tabinner 0.1

# ----------------- Run Section -----------------

# The lines above define the system you want to simulate.
# What you do next is up to you.
# Typically a user would minimize and equilibrate
# the system using commands similar to the following:
#  ----   examples   ----
#
#  -- minimize --
# minimize 1.0e-5 1.0e-7 1000 10000
# (Note: Some fixes, for example "shake", interfere with the minimize command,
#        You can use the "unfix" command to disable them before minimization.)
#  -- declare time step for normal MD --
# timestep 1.0
#  -- run at constant pressure (Nose-Hoover)--
# fix   fxnpt all npt temp 300.0 300.0 100.0 iso 1.0 1.0 1000.0 drag 1.0
#  -- ALTERNATELY, run at constant volume (Nose-Hoover) --
# fix   fxnvt all nvt temp 300.0 300.0 500.0 tchain 1
#  -- ALTERNATELY, run at constant volume using Langevin dynamics. --
#  -- (This is good for sparse CG polymers in implicit solvent.)   --
# fix fxLAN all langevin 300.0 300.0 5000 48279
# fix fxNVE all nve  #(<--needed by fix langevin)
#  -- Now, finally run the simulation --
# run   50000
#  ---- (end of examples) ----

variable N equal 10000
variable T equal 1500
variable P equal 1.01325	# 1 atm

velocity all create 1 277387 mom yes

neighbor	0.3 bin
neigh_modify	delay 10

thermo		100
timestep	0.002

restart 10000 restartFiles/SiO2.*.restart
dump myDump all atom 100 dumpFiles/msd_*.dump
fix nveID all nve
fix pbID all press/berendsen iso 1.01325 1.01325 300.0

run 10000
  1 neighbor list requests
  update every 1 steps, delay 10 steps, check yes
Step Temp E_pair E_mol TotEng Press Volume
0            1   -16633.414            0   -16632.744    223509.49    77963.932
Averages over the last 51 of 101 rows, steps 5000 to 10000:
Temp E_pair E_mol TotEng Press Volume
175.622 -17706.7 0 -17589.1 5.11428 78350.8
Loop time of 411.747 on 1 procs for 10000 steps with 5184 atoms
