LAMMPS (17 Nov 2016)
#include "system.in"
#velocity	all create 1 277387 mom yes
#include "system.prepare"

include "system.in.init"
  units         metal
  boundary      p p p
  atom_style    atomic
  pair_style    vashishta
  #pair_modify  mix arithmetic  # LEAVE THIS UNSPECIFIED!
read_restart restartFiles/hysteresis/SiO2_hysteresis_120000.restart
  orthogonal box = (0 0 0) to (327.52 327.52 100.64)
  655009 atoms
include "system.in.settings"
  pair_coeff  * *  SiO2.vashishta Si O
Reading potential file SiO2.vashishta with DATE: 2015-10-14
  pair_modify table 16
  pair_modify tabinner 0.1

variable N  equal 60000
variable N2 equal 1000
variable T  equal 293
variable compressionLength equal 60

restart 10000 restartFiles/hysteresis/SiO2_hysteresis_*.restart

neighbor	0.3 bin
neigh_modify	delay 10
timestep	0.002

fix   nvtID excludeBT nvt temp 293 293 1.0
  fix style: nvt, fix ID: nvtID

#Move the top z-boundary downwards
fix deform all deform 1 z delta 0 -60 remap x

#Compute force distribution
compute chunkID all chunk/atom bin/2d x 0 7.12 y 0 7.12
compute computeID slabG group/group/atom sphereG pair yes
fix fixComputeID slabG ave/chunk 5 200 1000 chunkID c_computeID[2] c_computeID[3] c_computeID[4] file forceFiles/forcesHysteresis.txt

#Dump
dump allDumpID all atom 1000 dumpFiles/hysteresis/SiO2_hysteresis_*.dump
dump surfaceDumpID  surfaceG  atom 1000 surfaceFiles/Surface*.dump

##Lower
thermo 100
#fix balanceID all balance 5000 1.1 shift xyz 50 1.0

##Equilibrate
#unfix deform
#run 10000

#Rise
fix deform all deform 1 z delta 0 60 remap x
run 60000
All restart file global fix info was re-assigned
Unused restart file peratom fix info:
  fix style: STORE, fix ID: chunkID_COMPUTE_STORE
  2 neighbor list requests
  update every 1 steps, delay 10 steps, check yes
Step Temp E_pair E_mol TotEng Press Volume
120000     267.9052   -2096102.1            0   -2073419.6    105299.78     10795587
Averages over the last 301 of 601 rows, steps 150000 to 180000:
Temp E_pair E_mol TotEng Press Volume
268.728 -2.20717e+06 0 -2.18441e+06 16086.1 1.56227e+07
Loop time of 24392.8 on 64 procs for 60000 steps with 655009 atoms
