LAMMPS (27 Aug 2016-ICMS)
include "system.in.init"
  units         metal
  boundary      p p p
  atom_style    atomic
  pair_style    vashishta
  #pair_modify  mix arithmetic  # LEAVE THIS UNSPECIFIED!
read_restart restartFiles/hold195000.restart
  orthogonal box = (0 0 0) to (320.4 320.4 138)
  537410 atoms
include "system.in.settings"
  pair_coeff  * *  SiO2.vashishta Si O
Reading potential file SiO2.vashishta with DATE: 2015-10-14
  pair_modify table 16
  pair_modify tabinner 0.1

# -----------Freeze the "bottom" of the slab ----------------
fix freezeID bottomAtomsID setforce 0 0 0
velocity bottomAtomsID set 0 0 0

variable N equal 4001
variable T equal 293

neighbor	0.3 bin
neigh_modify	delay 10

thermo		100
timestep	0.002

#restart 5000 restartFiles/hold*.restart

fix nvt all nvt temp 293 293 1.0

compute chunkID all chunk/atom bin/2d x 0 7.12 y 0 7.12

#compute stressID all stress/atom NULL
#fix fixChunkID all ave/chunk  100 10 1000 chunkID c_stressID[3] file stress50000.txt

#compute computeID slabGroup group/group/atom sphereGroup pair yes
#fix fixComputeID slabGroup ave/chunk 2 100 200 chunkID c_computeID[2] c_computeID[3] c_computeID[4] file forceFiles/forcesAll.txt #ave running

dump myDump surfaceGroup atom 200 dumpFiles/Surface*.dump
run 4001
  1 neighbor list requests
  update every 1 steps, delay 10 steps, check yes
Step Temp E_pair E_mol TotEng Press
195000    292.84003     -1807372            0   -1787029.7    17260.277
Averages over the last 21 of 42 rows, steps 197100 to 199001:
Temp E_pair E_mol TotEng Press
292.969 -1.80736e+06 0 -1.78701e+06 17274.2
Loop time of 2171.73 on 8 procs for 4001 steps with 537410 atoms
