LAMMPS (17 Nov 2016)
#include "system.in"
#velocity	all create 1 277387 mom yes
#include "system.prepare"

include "system.in.init"
  units         metal
  boundary      p p p
  atom_style    atomic
  pair_style    vashishta
  #pair_modify  mix arithmetic  # LEAVE THIS UNSPECIFIED!
read_restart restartFiles/SiO2_initial_50000.restart
  orthogonal box = (0 0 0) to (327.52 327.52 160.64)
  655009 atoms
include "system.in.settings"
  pair_coeff  * *  SiO2.vashishta Si O
Reading potential file SiO2.vashishta with DATE: 2015-10-14
  pair_modify table 16
  pair_modify tabinner 0.1

variable N  equal 60000
variable N2 equal 5000
variable T  equal 293
variable compressionLength equal 60

restart 10000 restartFiles/lower/SiO2_lower_*.restart

neighbor	0.3 bin
neigh_modify	delay 10

timestep	0.002

info groups

fix   nvtID excludeBT nvt temp 293 293 1.0
  fix style: nvt, fix ID: nvtID

print "BALLE"
BALLE

#Move the top z-boundary downwards
fix deform all deform 1 z delta 0 -60 remap x

print "BALLE"
BALLE
compute chunkID all chunk/atom bin/2d x 0 7.12 y 0 7.12
compute computeID slabG group/group/atom sphereG pair yes
fix fixComputeID slabG ave/chunk 5 1000 5000 chunkID c_computeID[2] c_computeID[3] c_computeID[4] file forceFiles/forcesAll.txt

print "BALLE"
BALLE

dump allDumpID all atom 5000 dumpFiles/lower/SiO2_lower_*.dump
dump surfaceDumpID  surfaceG  atom 5000 surfaceFiles/Surface*.dump

print "BALLE"
BALLE
thermo 100
fix balanceID all balance 5000 1.1 shift xyz 50 1.0
print "BALLE"
BALLE
run 60000
All restart file global fix info was re-assigned
  2 neighbor list requests
  update every 1 steps, delay 10 steps, check yes
Step Temp E_pair E_mol TotEng Press Volume
50000    267.05991   -2215115.4            0   -2192504.4    7538.6012     17231748
Averages over the last 301 of 601 rows, steps 80000 to 110000:
Temp E_pair E_mol TotEng Press Volume
268.49 -2.15236e+06 0 -2.12963e+06 59740.3 1.24046e+07
Loop time of 6348.96 on 64 procs for 60000 steps with 655009 atoms

unfix deform
run 10000
Step Temp E_pair E_mol TotEng Press Volume
110000    268.61155   -2095767.9            0   -2073025.5    105364.87     10795587
Averages over the last 51 of 101 rows, steps 115000 to 120000:
Temp E_pair E_mol TotEng Press Volume
268.392 -2.09607e+06 0 -2.07334e+06 105338 1.07956e+07
Loop time of 1051.28 on 64 procs for 10000 steps with 655009 atoms
