LAMMPS (27 Aug 2016-ICMS)
package omp 8
suffix omp

include "system.in.init"
  units         metal
  boundary      p p p
  atom_style    atomic
  pair_style    vashishta
  #pair_modify  mix arithmetic  # LEAVE THIS UNSPECIFIED!
read_restart restartFiles/squeeze20000.restart
  orthogonal box = (0 0 0) to (106.8 106.8 55.44)
  31126 atoms
include "system.in.settings"
  pair_coeff  * *  SiO2.vashishta Si O
Reading potential file SiO2.vashishta with DATE: 2015-10-14
  pair_modify table 16
  pair_modify tabinner 0.1

# -----------Freeze the "bottom" of the slab ----------------
fix freezeID bottomAtomsID setforce 0 0 0
velocity bottomAtomsID set 0 0 0

variable N equal 2000
variable T equal 293

neighbor	0.3 bin
neigh_modify	delay 10

thermo		100
timestep	0.002

fix nvt all nvt temp 293 293 1.0

compute chunkID all chunk/atom bin/2d x 0 7.12 y 0 7.12

compute computeID slabGroup group/group/atom sphereGroup pair yes
fix fixComputeID slabGroup ave/chunk 1 1 5 chunkID c_computeID[2] c_computeID[3] c_computeID[4] file forceFiles/forcesAll.txt #ave running

run 2000
Last active /omp style is pair_style vashishta/omp
  2 neighbor list requests
  update every 1 steps, delay 10 steps, check yes
Step Temp E_pair E_mol TotEng Press
20000    294.27909   -101315.04            0   -100131.09    63664.434
Averages over the last 11 of 21 rows, steps 21000 to 22000:
Temp E_pair E_mol TotEng Press
292.084 -101345 0 -100170 63522.9
Loop time of 103.781 on 1 procs for 2000 steps with 31126 atoms
