LAMMPS (27 Aug 2016-ICMS)
# Script to measure normal forces on the surface of the slab?
include "system.in.init"
  units         metal
  boundary      p p p
  atom_style    atomic
  pair_style    vashishta
  #pair_modify  mix arithmetic  # LEAVE THIS UNSPECIFIED!
read_restart hold28000.restart
  orthogonal box = (0 0 0) to (106.8 106.8 71.8)
  48511 atoms
include "system.in.settings"
  pair_coeff  * *  SiO2.vashishta Si O
Reading potential file SiO2.vashishta with DATE: 2015-10-14
  pair_modify table 16
  pair_modify tabinner 0.1

variable N equal 20000
variable T equal 500
variable compressionLength equal 0

# -----------Freeze the "bottom" of the slab ----------------
fix freezeID bottomAtomsID setforce 0 0 0
velocity bottomAtomsID set 0 0 0

#restart 1000 hold*.restart
neighbor	0.3 bin
neigh_modify	delay 10

thermo		100
timestep	0.002

#dump myDump all atom 50 dumps/holding_half_*.dump

#Move the top z-boundary downwards

fix nvt all nvt temp 500 500 1.0

compute chunkID all chunk/atom bin/2d x 0 1.78 y 0 1.78
compute stressID all stress/atom NULL
fix fixChunkID all ave/chunk 1 1 10 chunkID c_stressID[3] file positionsInChunk.xyz

run 20000
  1 neighbor list requests
  update every 1 steps, delay 10 steps, check yes
Step Temp E_pair E_mol TotEng Press
28000    500.45835   -158632.67            0   -155494.59    59213.045
Averages over the last 101 of 201 rows, steps 38000 to 48000:
Temp E_pair E_mol TotEng Press
499.685 -158700 0 -155567 58584.6
Loop time of 690.749 on 8 procs for 20000 steps with 48511 atoms
