LAMMPS (17 Nov 2016)
include "system.in"

# ----------------- Init Section -----------------

include "system.in.init"
  units         metal
  boundary      p p p
  atom_style    atomic
  pair_style    vashishta
  #pair_modify  mix arithmetic  # LEAVE THIS UNSPECIFIED!
    units		metal
    boundary	p p p
    atom_style   atomic
    pair_style 	 vashishta
    #pair_modify  mix arithmetic  # LEAVE THIS UNSPECIFIED!

# ----------------- Atom Definition Section -----------------

read_data "system.data"
  orthogonal box = (0 0 0) to (329.36 329.36 193.32)
  reading atoms ...
  1117248 atoms

# ----------------- Settings Section -----------------

include "system.in.settings"
  pair_coeff  * *  SiO2.vashishta Si O
Reading potential file SiO2.vashishta with DATE: 2015-10-14
  pair_modify table 16
  pair_modify tabinner 0.1

# ----------------- Run Section -----------------

# The lines above define the system you want to simulate.
# What you do next is up to you.
# Typically a user would minimize and equilibrate
# the system using commands similar to the following:
#  ----   examples   ----
#
#  -- minimize --
# minimize 1.0e-5 1.0e-7 1000 10000
# (Note: Some fixes, for example "shake", interfere with the minimize command,
#        You can use the "unfix" command to disable them before minimization.)
#  -- declare time step for normal MD --
# timestep 1.0
#  -- run at constant pressure (Nose-Hoover)--
# fix   fxnpt all npt temp 300.0 300.0 100.0 iso 1.0 1.0 1000.0 drag 1.0
#  -- ALTERNATELY, run at constant volume (Nose-Hoover) --
# fix   fxnvt all nvt temp 300.0 300.0 500.0 tchain 1
#  -- ALTERNATELY, run at constant volume using Langevin dynamics. --
#  -- (This is good for sparse CG polymers in implicit solvent.)   --
# fix fxLAN all langevin 300.0 300.0 5000 48279
# fix fxNVE all nve  #(<--needed by fix langevin)
#  -- Now, finally run the simulation --
# run   50000
#  ---- (end of examples) ----

velocity	all create 1 277387 mom yes

include "system.prepare"
#region ID style args keyword arg ...

#--------------------- Define the region of the sphere -------------------------
region sphereR sphere 164.68 164.68 271.6 200
region smallSphereR sphere 164.68 164.68 271.6 197 side out
region shellR intersect 2 sphereR smallSphereR
region sphereUpperR block 0 INF 0 INF 157.52 170.52
region chopTopR block INF INF INF INF 170.52 INF

group  sphereG1 region sphereR
344834 atoms in group sphereG1
group  shellG region shellR
23882 atoms in group shellG
group  sphereUpperG region sphereUpperR
93104 atoms in group sphereUpperG
group  chopTopG region chopTopR
12696 atoms in group chopTopG
group  sphereG subtract sphereG1 sphereUpperG
269000 atoms in group sphereG

#--------------------- Define the region of the slab ---------------------------
region slabR block INF INF INF INF 3.0 28.64
group  slabG region slabR
181976 atoms in group slabG

region slabBottomR block INF INF INF INF 0.0 3.0
group  slabBottomG region slabBottomR
25392 atoms in group slabBottomG

#------------ Delete all atoms exterior to the sphere and slab -----------------
region cutOutR union 4 sphereR slabR slabBottomR sphereUpperR side out
group cutOutG1 region cutOutR
547776 atoms in group cutOutG1
group cutOutG2 union cutOutG1 chopTopG
558519 atoms in group cutOutG2
delete_atoms group cutOutG2
Deleted 558519 atoms, new total = 558729

#---------------------------- Define the surface -------------------------------
region surfaceR block INF INF INF INF 28.64 28.65    #Top two layers of atoms
group  surfaceG  region surfaceR
4232 atoms in group surfaceG

#--------------------------- Freeze some volumes -------------------------------
region slabUpperR block INF INF INF INF 25.64 28.64
group slabUpperG region slabUpperR
25392 atoms in group slabUpperG

group excludeB  subtract all slabBottomG
533337 atoms in group excludeB
group excludeBT subtract all slabBottomG sphereUpperG
440233 atoms in group excludeBT
group initialFreezeG subtract all slabUpperG slabBottomG sphereUpperG shellG
394029 atoms in group initialFreezeG

# Make top slab rigid. Only allow force interaction in z-direction. No rotation.
#fix rigidTop sphereUpperG rigid single force 1 off off on torque 1 on on on

#include "system.in.init"
#read_restart
#include "system.in.settings"

variable N equal 20000
variable T equal 1000
variable Fz equal 0.0

neighbor	0.3 bin
neigh_modify	delay 10

thermo		100
timestep	0.002

fix nvtID initialFreezeG nvt temp 1000 1000 1.0

restart 20000 restartFiles/SiO2_initial*.restart
#dump myDump all atom 5000 dumpFiles/SiO2_initial*.dump

balance 1.1 shift xyz 50 1.0
  1 neighbor list requests
  update every 1 steps, delay 10 steps, check yes
  rebalancing time: 0.14392 seconds
  iteration count = 150
  initial/final max load/proc = 32695 19388
  initial/final imbalance factor = 1.87254 1.11041
  x cuts: 0 0.298913 0.5 0.701087 1
  y cuts: 0 0.298913 0.5 0.701087 1
  z cuts: 0 0.597222 1

run 20000
Step Temp E_pair E_mol TotEng Press
0    1.0000081   -1804311.4            0   -1804239.2    74338.886
Averages over the last 101 of 201 rows, steps 10000 to 20000:
Temp E_pair E_mol TotEng Press
705.58 -1.82735e+06 0 -1.77639e+06 20518.6
Loop time of 5008.81 on 32 procs for 20000 steps with 558729 atoms

unfix nvtID
fix nvtID excludeBT nvt temp 1000 1000 1.0

run 20000
Step Temp E_pair E_mol TotEng Press
20000     706.8052   -1827273.9            0   -1776227.5    20359.687
Averages over the last 101 of 201 rows, steps 30000 to 40000:
Temp E_pair E_mol TotEng Press
788.366 -1.83116e+06 0 -1.77422e+06 15387.2
Loop time of 4824.31 on 32 procs for 20000 steps with 558729 atoms
